/*--------------------------------*- C++ -*----------------------------------*\
| =========                 |                                                 |
| \\      /  F ield         | OpenFOAM: The Open Source CFD Toolbox           |
|  \\    /   O peration     | Version:  3.0.1                                 |
|   \\  /    A nd           | Web:      www.OpenFOAM.org                      |
|    \\/     M anipulation  |                                                 |
\*---------------------------------------------------------------------------*/
FoamFile
{
    version     2.0;
    format      binary;
    class       volVectorField;
    location    "0";
    object      U.air;
}
// * * * * * * * * * * * * * * * * * * * * * * * * * * * * * * * * * * * * * //

dimensions      [0 1 -1 0 0 0 0];

internalField   uniform (0 0 0);

boundaryField
{


    inlet_1
    {
 	type            uniformFixedValue;
        uniformValue    (0 60.0 0);
    }
    inlet_2
    {
 	type            uniformFixedValue;
        uniformValue    (0 60.0 0);

    }
    outlet
    {
        type            zeroGradient;

    }
    casing
    {
        type 		   fixedValue;
        value              uniform (0 0 0);
    }

}


// ************************************************************************* //
